Version 4
SHEET 1 992 680
WIRE 160 -288 -48 -288
WIRE 288 -288 160 -288
WIRE 864 -240 864 -272
WIRE 288 -176 288 -288
WIRE 336 -176 288 -176
WIRE 576 -176 528 -176
WIRE 576 -160 576 -176
WIRE 656 -160 576 -160
WIRE 656 -144 656 -160
WIRE 864 -144 864 -160
WIRE 864 -144 656 -144
WIRE 912 -144 912 -160
WIRE 912 -144 864 -144
WIRE 576 -112 528 -112
WIRE 336 -80 288 -80
WIRE 576 -80 576 -112
WIRE 656 -80 576 -80
WIRE 656 -48 656 -80
WIRE 160 -16 160 -288
WIRE 288 -16 288 -80
WIRE 336 -16 288 -16
WIRE 336 80 336 64
WIRE 160 112 160 64
WIRE -48 160 -48 -288
WIRE 288 160 208 160
WIRE 160 192 160 176
WIRE 208 192 208 160
WIRE 208 192 160 192
WIRE 160 208 160 192
WIRE 336 208 336 176
WIRE -48 240 -48 224
WIRE 208 272 160 272
WIRE -48 288 -48 240
WIRE 160 288 160 272
WIRE 160 288 -48 288
WIRE 336 288 160 288
WIRE 160 304 160 288
FLAG 160 304 0
FLAG 864 -272 5V
FLAG -176 240 0
FLAG -176 160 5V
FLAG 912 -160 VOLTAGE
FLAG 656 -48 0
SYMBOL zener 176 272 R180
WINDOW 0 24 64 Left 2
WINDOW 3 24 0 Left 2
SYMATTR InstName D1
SYMATTR Value PTZ8_2B
SYMATTR Description Diode
SYMATTR Type diode
SYMBOL zener 176 176 R180
WINDOW 0 24 64 Left 2
WINDOW 3 24 0 Left 2
SYMATTR InstName D2
SYMATTR Value 1N5369B
SYMATTR Description Diode
SYMATTR Type diode
SYMBOL res 192 176 R0
SYMATTR InstName R1
SYMATTR Value 100000k
SYMBOL res 144 -32 R0
SYMATTR InstName R2
SYMATTR Value 1000k
SYMBOL res 320 -32 R0
SYMATTR InstName R3
SYMATTR Value 10k
SYMBOL res 320 192 R0
SYMATTR InstName R4
SYMATTR Value 2000
SYMBOL voltage -48 144 R0
WINDOW 123 0 0 Left 2
WINDOW 39 0 0 Left 2
SYMATTR InstName V1
SYMATTR Value PULSE(0 600 0 1 0 10)
SYMBOL nmos 288 80 R0
SYMATTR InstName M1
SYMATTR Value STW11NM80
SYMBOL Optos\\4N26 432 -112 R0
SYMATTR InstName U1
SYMBOL res 848 -256 R0
SYMATTR InstName R5
SYMATTR Value 10k
SYMBOL voltage -176 144 R0
WINDOW 123 0 0 Left 2
WINDOW 39 0 0 Left 2
SYMATTR InstName V2
SYMATTR Value 5
SYMBOL LED 640 -144 R0
SYMATTR InstName D3
SYMATTR Value LUW-W5AP
SYMATTR Description Diode
SYMATTR Type diode
TEXT -80 328 Left 2 !.tran 1
